@<TRIPOS>MOLECULE
RES
3 2 1 0 1
SMALL
NO_CHARGES
@<TRIPOS>CRYSIN
    7.2000     5.0000     5.0000    90.0000    90.0000    90.0000  1  1
@<TRIPOS>ATOM
       1 C            0.0000     0.0000     0.0000 C             1 RES     
       2 H           -1.1000     0.0000     0.0000 H             1 RES     
       3 H            1.1000     0.0000     0.0000 H             1 RES     
@<TRIPOS>BOND
       1        3        1 1
       2        2        1 1
@<TRIPOS>SUBSTRUCTURE
       1 RES             1 RESIDUE    0 **** ROOT      0
